simulator lang=spice
// Generated for: spectre
// Generated on: Oct 17 10:26:52 2014
// Design library name: 130nm_BOOLEAN_AND_SPECIAL_final
// Design cell name: AND2_A
// Design view name: schematic
.SUBCKT AND2_A a b gnd vdd z
simulator lang=spectre

// Library name: 130nm_BOOLEAN_AND_SPECIAL_final
// Cell name: AND2_A
// View name: schematic
T1 (iz B VDD NW) lvtpfet l=120.0n w=160.0n nf=1 m=1 par=1 ngcon=1 \
        ad=8.8e-14 as=8.8e-14 pd=1.42u ps=1.42u nrd=1.5652 nrs=1.5652 \
        rf_rsub=1 plnest=-1 plorient=-1 pld200=-1 pwd100=-1 lstis=1 lnws=0 \
        rgatemod=0 rbodymod=0 panw1=0p panw2=0p panw3=0p panw4=0p panw5=0p \
        panw6=0p panw7=0p panw8=0p panw9=0p panw10=0p sa=5.5e-07 \
        sb=5.5e-07 sd=0u dtemp=0
T0 (iz A VDD NW) lvtpfet l=120.0n w=160.0n nf=1 m=1 par=1 ngcon=1 \
        ad=8.8e-14 as=8.8e-14 pd=1.42u ps=1.42u nrd=1.5652 nrs=1.5652 \
        rf_rsub=1 plnest=-1 plorient=-1 pld200=-1 pwd100=-1 lstis=1 lnws=0 \
        rgatemod=0 rbodymod=0 panw1=0p panw2=0p panw3=0p panw4=0p panw5=0p \
        panw6=0p panw7=0p panw8=0p panw9=0p panw10=0p sa=5.5e-07 \
        sb=5.5e-07 sd=0u dtemp=0
T15 (net018 B GND SX) nfet l=120.0n w=160.0n nf=1 m=1 par=1 ngcon=1 \
        ad=8.8e-14 as=8.8e-14 pd=1.42u ps=1.42u nrd=1.5652 nrs=1.5652 \
        rf_rsub=1 plnest=-1 plorient=-1 pld200=-1 pwd100=-1 lstis=1 lnws=0 \
        rgatemod=0 rbodymod=0 panw1=0p panw2=0p panw3=0p panw4=0p panw5=0p \
        panw6=0p panw7=0p panw8=0p panw9=0p panw10=0p sa=5.5e-07 \
        sb=5.5e-07 sd=0u dtemp=0
T14 (iz A net018 SX) lvtnfet l=120.0n w=160.0n nf=1 m=1 par=1 ngcon=1 \
        ad=8.8e-14 as=8.8e-14 pd=1.42u ps=1.42u nrd=1.5652 nrs=1.5652 \
        rf_rsub=1 plnest=-1 plorient=-1 pld200=-1 pwd100=-1 lstis=1 lnws=0 \
        rgatemod=0 rbodymod=0 panw1=0p panw2=0p panw3=0p panw4=0p panw5=0p \
        panw6=0p panw7=0p panw8=0p panw9=0p panw10=0p sa=5.5e-07 \
        sb=5.5e-07 sd=0u dtemp=0
T18 (z iz GND SX) lvtnfet l=120.0n w=160.0n nf=1 m=1 par=1 ngcon=1 \
        ad=8.8e-14 as=8.8e-14 pd=1.42u ps=1.42u nrd=1.5652 nrs=1.5652 \
        rf_rsub=1 plnest=-1 plorient=-1 pld200=-1 pwd100=-1 lstis=1 lnws=0 \
        rgatemod=0 rbodymod=0 panw1=0p panw2=0p panw3=0p panw4=0p panw5=0p \
        panw6=0p panw7=0p panw8=0p panw9=0p panw10=0p sa=5.5e-07 \
        sb=5.5e-07 sd=0u dtemp=0
T9 (z iz VDD NW) pfet l=120.0n w=360.0n nf=1 m=1 par=1 ngcon=1 ad=1.98e-13 \
        as=1.98e-13 pd=1.82u ps=1.82u nrd=0.5 nrs=0.5 rf_rsub=1 plnest=-1 \
        plorient=-1 pld200=-1 pwd100=-1 lstis=1 lnws=0 rgatemod=0 \
        rbodymod=0 panw1=0p panw2=0p panw3=0p panw4=0p panw5=0p panw6=0p \
        panw7=0p panw8=0p panw9=0p panw10=0p sa=5.5e-07 sb=5.5e-07 sd=0u \
        dtemp=0
simulator lang=spice
.ENDS
