simulator lang=spice
// Generated for: spectre
// Generated on: Oct 17 10:26:58 2014
// Design library name: 130nm_BOOLEAN_AND_SPECIAL_final
// Design cell name: AND3_A
// Design view name: schematic
.SUBCKT AND3_A a b gnd vdd z
simulator lang=spectre

// Library name: 130nm_BOOLEAN_AND_SPECIAL_final
// Cell name: AND3_A
// View name: schematic
TNB (net58 B net040 GND) nfet l=120.0n w=160.0n nf=1 m=1 par=1 ngcon=1 \
        ad=8.8e-14 as=8.8e-14 pd=1.42u ps=1.42u nrd=1.125 nrs=1.125 \
        rf_rsub=1 plnest=-1 plorient=-1 pld200=-1 pwd100=-1 lstis=1 lnws=0 \
        rgatemod=0 rbodymod=0 panw1=0p panw2=0p panw3=0p panw4=0p panw5=0p \
        panw6=0p panw7=0p panw8=0p panw9=0p panw10=0p sa=5.5e-07 \
        sb=5.5e-07 sd=0u dtemp=0
TNA (net065 A net58 GND) nfet l=120.0n w=160.0n nf=1 m=1 par=1 ngcon=1 \
        ad=8.8e-14 as=8.8e-14 pd=1.42u ps=1.42u nrd=1.125 nrs=1.125 \
        rf_rsub=1 plnest=-1 plorient=-1 pld200=-1 pwd100=-1 lstis=1 lnws=0 \
        rgatemod=0 rbodymod=0 panw1=0p panw2=0p panw3=0p panw4=0p panw5=0p \
        panw6=0p panw7=0p panw8=0p panw9=0p panw10=0p sa=5.5e-07 \
        sb=5.5e-07 sd=0u dtemp=0
TNC (net040 C GND GND) nfet l=120.0n w=160.0n nf=1 m=1 par=1 ngcon=1 \
        ad=8.8e-14 as=8.8e-14 pd=1.42u ps=1.42u nrd=1.125 nrs=1.125 \
        rf_rsub=1 plnest=-1 plorient=-1 pld200=-1 pwd100=-1 lstis=1 lnws=0 \
        rgatemod=0 rbodymod=0 panw1=0p panw2=0p panw3=0p panw4=0p panw5=0p \
        panw6=0p panw7=0p panw8=0p panw9=0p panw10=0p sa=5.5e-07 \
        sb=5.5e-07 sd=0u dtemp=0
TNZ (Z net065 GND GND) nfet l=120.0n w=160.0n nf=1 m=1 par=1 ngcon=1 \
        ad=8.8e-14 as=8.8e-14 pd=1.42u ps=1.42u nrd=1.125 nrs=1.125 \
        rf_rsub=1 plnest=-1 plorient=-1 pld200=-1 pwd100=-1 lstis=1 lnws=0 \
        rgatemod=0 rbodymod=0 panw1=0p panw2=0p panw3=0p panw4=0p panw5=0p \
        panw6=0p panw7=0p panw8=0p panw9=0p panw10=0p sa=5.5e-07 \
        sb=5.5e-07 sd=0u dtemp=0
TPA (net065 A VDD VDD) pfet l=120.0n w=160.0n nf=1 m=1 par=1 ngcon=1 \
        ad=8.8e-14 as=8.8e-14 pd=1.42u ps=1.42u nrd=1.125 nrs=1.125 \
        rf_rsub=1 plnest=-1 plorient=-1 pld200=-1 pwd100=-1 lstis=1 lnws=0 \
        rgatemod=0 rbodymod=0 panw1=0p panw2=0p panw3=0p panw4=0p panw5=0p \
        panw6=0p panw7=0p panw8=0p panw9=0p panw10=0p sa=5.5e-07 \
        sb=5.5e-07 sd=0u dtemp=0
TPB (net065 B VDD VDD) pfet l=120.0n w=160.0n nf=1 m=1 par=1 ngcon=1 \
        ad=8.8e-14 as=8.8e-14 pd=1.42u ps=1.42u nrd=1.125 nrs=1.125 \
        rf_rsub=1 plnest=-1 plorient=-1 pld200=-1 pwd100=-1 lstis=1 lnws=0 \
        rgatemod=0 rbodymod=0 panw1=0p panw2=0p panw3=0p panw4=0p panw5=0p \
        panw6=0p panw7=0p panw8=0p panw9=0p panw10=0p sa=5.5e-07 \
        sb=5.5e-07 sd=0u dtemp=0
TPC (net065 C VDD VDD) pfet l=120.0n w=160.0n nf=1 m=1 par=1 ngcon=1 \
        ad=8.8e-14 as=8.8e-14 pd=1.42u ps=1.42u nrd=1.125 nrs=1.125 \
        rf_rsub=1 plnest=-1 plorient=-1 pld200=-1 pwd100=-1 lstis=1 lnws=0 \
        rgatemod=0 rbodymod=0 panw1=0p panw2=0p panw3=0p panw4=0p panw5=0p \
        panw6=0p panw7=0p panw8=0p panw9=0p panw10=0p sa=5.5e-07 \
        sb=5.5e-07 sd=0u dtemp=0
TPZ (Z net065 VDD VDD) pfet l=120.0n w=400n nf=1 m=1 par=1 ngcon=1 \
        ad=2.2e-13 as=2.2e-13 pd=1.9u ps=1.9u nrd=0.45 nrs=0.45 rf_rsub=1 \
        plnest=-1 plorient=-1 pld200=-1 pwd100=-1 lstis=1 lnws=0 \
        rgatemod=0 rbodymod=0 panw1=0p panw2=0p panw3=0p panw4=0p panw5=0p \
        panw6=0p panw7=0p panw8=0p panw9=0p panw10=0p sa=5.5e-07 \
        sb=5.5e-07 sd=0u dtemp=0
simulator lang=spice
.ENDS
